cases/case14_tree.m
function mpc = case14_tree

%% MATPOWER Case Format : Version 2
mpc.version = '2';

%%-----  Power Flow Data  -----%%
%% system MVA base
mpc.baseMVA = 1;

%% bus data
%	bus_i	type	Pd	Qd	Gs	Bs	area	Vm	Va	baseKV	zone	Vmax	Vmin
mpc.bus = [
	1	3	0	0	0	0	1	1.06	0	0	1	1.06	0.94;
	2	2	21.7	12.7	0	0	1	1.045	-2.46611238	0	1	1.06	0.94;
	3	2	94.2	19	0	0	1	1.01	-12.9925768	0	1	1.06	0.94;
	4	1	47.8	-3.9	0	0	1	0.967816544	-21.764336	0	1	1.06	0.94;
	5	1	7.6	1.6	0	0	1	0.974107405	-18.9990913	0	1	1.06	0.94;
	6	2	11.2	7.5	0	0	1	1.07	-23.4561902	0	1	1.06	0.94;
	7	1	0	0	0	0	1	1.03061981	-28.09274	0	1	1.06	0.94;
	8	2	0	0	0	0	1	1.09	-28.09274	0	1	1.06	0.94;
	9	1	29.5	16.6	0	0	1	1.01990868	-31.3180367	0	1	1.06	0.94;
	10	1	9	5.8	0	0	1	1.01222265	-31.6377139	0	1	1.06	0.94;
	11	1	3.5	1.8	0	0	1	1.06349634	-23.7206243	0	1	1.06	0.94;
	12	1	6.1	1.6	0	0	1	1.05897753	-24.145808	0	1	1.06	0.94;
	13	1	13.5	5.8	0	0	1	1.05428344	-24.1545625	0	1	1.06	0.94;
	14	1	14.9	5	0	0	1	0.986423315	-33.2507996	0	1	1.06	0.94;
];

%% generator data
%	bus	Pg	Qg	Qmax	Qmin	Vg	mBase	status	Pmax	Pmin	Pc1	Pc2	Qc1min	Qc1max	Qc2min	Qc2max	ramp_agc	ramp_10	ramp_30	ramp_q	apf
mpc.gen = [
	1	238.679924	29.9008363	10	0	1.06	100	1	332.4	0	0	0	0	0	0	0	0	0	0	0	0;
	2	40	18.2662045	50	-40	1.045	100	1	140	0	0	0	0	0	0	0	0	0	0	0	0;
	3	0	32.4753441	40	0	1.01	100	1	100	0	0	0	0	0	0	0	0	0	0	0	0;
	6	0	28.9509521	24	-6	1.07	100	1	100	0	0	0	0	0	0	0	0	0	0	0	0;
	8	0	36.7439181	24	-6	1.09	100	1	100	0	0	0	0	0	0	0	0	0	0	0	0;
];

%% branch data
%	fbus	tbus	r	x	b	rateA	rateB	rateC	ratio	angle	status	angmin	angmax	Pf	Qf	Pt	Qt
mpc.branch = [
	1	2	0.0001938	0.0005917	0	9900	0	0	0	0	1	-360	360	81.2094	2.0070	-80.0712	1.4681;
	1	5	0.0005403	0.0022304	0	9900	0	0	0	0	1	-360	360	157.4705	27.8939	-145.1724	22.8738;
	2	3	0.0004699	0.0019797	0	9900	0	0	0	0	1	-360	360	98.3712	4.0981	-94.2000	13.4753;
	4	5	0.0001335	0.0004211	0	9900	0	0	0	0	1	-360	360	-101.5583	20.3453	103.0873	-15.5222;
	4	7	0	0.0020912	0	9900	0	0	0	0	1	-360	360	53.7583	-16.4453	-53.7583	23.1941;
	5	6	0	0.0025202	0	9900	0	0	0	0	1	-360	360	34.4851	-8.9515	-34.4851	11.8800;
	6	11	0.0009498	0.001989	0	9900	0	0	0	0	1	-360	360	3.5130	1.8272	-3.5000	-1.8000;
	6	12	0.0012291	0.0025581	0	9900	0	0	0	0	1	-360	360	6.1436	1.6907	-6.1000	-1.6000;
	6	13	0.0006615	0.0013027	0	9900	0	0	0	0	1	-360	360	13.6285	6.0530	-13.5000	-5.8000;
	7	8	0	0.0017615	0	9900	0	0	0	0	1	-360	360	0.0000	-34.7422	-0.0000	36.7439;
	7	9	0	0.0011001	0	9900	0	0	0	0	1	-360	360	53.7583	11.5481	-53.7583	-8.4169;
	9	10	0.0003181	0.000845	0	9900	0	0	0	0	1	-360	360	9.0356	5.8945	-9.0000	-5.8000;
	9	14	0.0012711	0.0027038	0	9900	0	0	0	0	1	-360	360	15.2227	5.6864	-14.9000	-5.0000;
];

%%-----  OPF Data  -----%%
%% generator cost data
%	1	startup	shutdown	n	x1	y1	...	xn	yn
%	2	startup	shutdown	n	c(n-1)	...	c0
mpc.gencost = [
	2	0	0	3	0.0430293	20	0;
	2	0	0	3	0.25	20	0;
	2	0	0	3	0.01	40	0;
	2	0	0	3	0.01	40	0;
	2	0	0	3	0.01	40	0;
];
